<?xml version="1.0" encoding="UTF-8"?>
<net version="1.9" junctionCornerDetail="5" limitTurnSpeed="5.50" xmlns:xsi="http://www.w3.org/2001/XMLSchema-instance" xsi:noNamespaceSchemaLocation="http://sumo.dlr.de/xsd/net_file.xsd">

    <location netOffset="0.00,0.00" convBoundary="-100.00,-100.00,100.00,100.00" origBoundary="-10000000000.00,-10000000000.00,10000000000.00,10000000000.00" projParameter="!"/>

    <edge id=":J0_0" function="internal">
        <lane id=":J0_0_0" index="0" speed="13.89" length="14.40" shape="-1.60,7.20 -1.60,-7.20"/>
    </edge>
    <edge id=":J0_1" function="internal">
        <lane id=":J0_1_0" index="0" speed="13.89" length="5.93" shape="-1.60,7.20 -1.15,4.75 -0.00,3.20 1.35,2.45 3.20,2.40"/>
    </edge>
    <edge id=":J0_2" function="internal">
        <lane id=":J0_2_0" index="0" speed="13.89" length="14.40" shape="7.20,1.60 -7.20,1.60"/>
    </edge>
    <edge id=":J0_3" function="internal">
        <lane id=":J0_3_0" index="0" speed="13.89" length="5.93" shape="7.20,1.60 4.75,1.15 3.20,-0.00 2.45,-1.35 2.40,-3.20"/>
    </edge>
    <edge id=":J0_4" function="internal">
        <lane id=":J0_4_0" index="0" speed="13.89" length="14.40" shape="1.60,-7.20 1.60,7.20"/>
    </edge>
    <edge id=":J0_5" function="internal">
        <lane id=":J0_5_0" index="0" speed="13.89" length="5.93" shape="1.60,-7.20 1.15,-4.75 -0.00,-3.20 -1.35,-2.45 -3.20,-2.40"/>
    </edge>
    <edge id=":J0_6" function="internal">
        <lane id=":J0_6_0" index="0" speed="13.89" length="14.40" shape="-7.20,-1.60 7.20,-1.60"/>
    </edge>
    <edge id=":J0_7" function="internal">
        <lane id=":J0_7_0" index="0" speed="13.89" length="5.93" shape="-7.20,-1.60 -4.75,-1.15 -3.20,-0.00 -2.45,1.35 -2.40,3.20"/>
    </edge>

    <edge id="E0" from="n0" to="J0" priority="-1">
        <lane id="E0_0" index="0" speed="13.89" length="92.80" shape="0.00,100.00 -1.60,7.20"/>
    </edge>
    <edge id="E1" from="n1" to="J0" priority="-1">
        <lane id="E1_0" index="0" speed="13.89" length="92.80" shape="100.00,0.00 7.20,1.60"/>
    </edge>
    <edge id="E2" from="n2" to="J0" priority="-1">
        <lane id="E2_0" index="0" speed="13.89" length="92.80" shape="0.00,-100.00 1.60,-7.20"/>
    </edge>
    <edge id="E3" from="n3" to="J0" priority="-1">
        <lane id="E3_0" index="0" speed="13.89" length="92.80" shape="-100.00,0.00 -7.20,-1.60"/>
    </edge>
    <edge id="-E0" from="J0" to="n0" priority="-1">
        <lane id="-E0_0" index="0" speed="13.89" length="92.80" shape="1.60,7.20 -0.00,100.00"/>
    </edge>
    <edge id="-E1" from="J0" to="n1" priority="-1">
        <lane id="-E1_0" index="0" speed="13.89" length="92.80" shape="7.20,-1.60 100.00,0.00"/>
    </edge>
    <edge id="-E2" from="J0" to="n2" priority="-1">
        <lane id="-E2_0" index="0" speed="13.89" length="92.80" shape="-1.60,-7.20 -0.00,-100.00"/>
    </edge>
    <edge id="-E3" from="J0" to="n3" priority="-1">
        <lane id="-E3_0" index="0" speed="13.89" length="92.80" shape="-7.20,1.60 -100.00,0.00"/>
    </edge>

    <junction id="J0" type="traffic_light" x="0.00" y="0.00" incLanes="E0_0 E1_0 E2_0 E3_0" intLanes=":J0_0_0 :J0_1_0 :J0_2_0 :J0_3_0 :J0_4_0 :J0_5_0 :J0_6_0 :J0_7_0" shape="-3.20,7.20 3.20,7.20 7.20,3.20 7.20,-3.20 3.20,-7.20 -3.20,-7.20 -7.20,-3.20 -7.20,3.20">
        <request index="0" response="00000000" foes="10001000" cont="0"/>
        <request index="1" response="01000000" foes="01000000" cont="0"/>
        <request index="2" response="00000000" foes="10001000" cont="0"/>
        <request index="3" response="00000100" foes="00000100" cont="0"/>
        <request index="4" response="00000000" foes="10001000" cont="0"/>
        <request index="5" response="01000000" foes="01000000" cont="0"/>
        <request index="6" response="00000000" foes="10001000" cont="0"/>
        <request index="7" response="00000100" foes="00000100" cont="0"/>
    </junction>
    <junction id="n0" type="dead_end" x="0.00" y="100.00" incLanes="-E0_0" intLanes="" shape="0.00,100.00 3.20,100.00 0.00,100.00"/>
    <junction id="n1" type="dead_end" x="100.00" y="0.00" incLanes="-E1_0" intLanes="" shape="100.00,0.00 100.00,-3.20 100.00,0.00"/>
    <junction id="n2" type="dead_end" x="0.00" y="-100.00" incLanes="-E2_0" intLanes="" shape="0.00,-100.00 -3.20,-100.00 0.00,-100.00"/>
    <junction id="n3" type="dead_end" x="-100.00" y="0.00" incLanes="-E3_0" intLanes="" shape="-100.00,0.00 -100.00,3.20 -100.00,0.00"/>

    <connection from="E0" to="E2" fromLane="0" toLane="0" via=":J0_0_0" tl="J0" linkIndex="0" dir="s" state="O"/>
    <connection from="E0" to="E1" fromLane="0" toLane="0" via=":J0_1_0" tl="J0" linkIndex="1" dir="l" state="O"/>
    <connection from="E1" to="E3" fromLane="0" toLane="0" via=":J0_2_0" tl="J0" linkIndex="2" dir="s" state="O"/>
    <connection from="E1" to="E2" fromLane="0" toLane="0" via=":J0_3_0" tl="J0" linkIndex="3" dir="l" state="O"/>
    <connection from="E2" to="E0" fromLane="0" toLane="0" via=":J0_4_0" tl="J0" linkIndex="4" dir="s" state="O"/>
    <connection from="E2" to="E3" fromLane="0" toLane="0" via=":J0_5_0" tl="J0" linkIndex="5" dir="l" state="O"/>
    <connection from="E3" to="E1" fromLane="0" toLane="0" via=":J0_6_0" tl="J0" linkIndex="6" dir="s" state="O"/>
    <connection from="E3" to="E0" fromLane="0" toLane="0" via=":J0_7_0" tl="J0" linkIndex="7" dir="l" state="O"/>

    <connection from=":J0_0" to="E2" fromLane="0" toLane="0" dir="s" state="M"/>
    <connection from=":J0_1" to="E1" fromLane="0" toLane="0" dir="l" state="M"/>
    <connection from=":J0_2" to="E3" fromLane="0" toLane="0" dir="s" state="M"/>
    <connection from=":J0_3" to="E2" fromLane="0" toLane="0" dir="l" state="M"/>
    <connection from=":J0_4" to="E0" fromLane="0" toLane="0" dir="s" state="M"/>
    <connection from=":J0_5" to="E3" fromLane="0" toLane="0" dir="l" state="M"/>
    <connection from=":J0_6" to="E1" fromLane="0" toLane="0" dir="s" state="M"/>
    <connection from=":J0_7" to="E0" fromLane="0" toLane="0" dir="l" state="M"/>

</net>
